<routes xmlns:xsi="http://www.w3.org/2001/XMLSchema-instance"
        xsi:noNamespaceSchemaLocation="http://sumo.dlr.de/xsd/routes_file.xsd">
    <flow id="2" begin="0" end="1000000" period="359">
        <route edges="A1B1 B1B2 B2B3 B3B4 B4A4"/>
    </flow>
    <flow id="11" begin="0" end="1000000" period="202">
        <route edges="A1B1 B1C1 C1D1 D1D2 D2D3 D3E3 -gneE3 -gneE1 E5E6"/>
    </flow>
    <flow id="17" begin="0" end="1000000" period="225">
        <route edges="A1B1 B1C1 C1D1 D1D2 D2D3 D3D4 D4D5 D5E5 E5F5 F5G5"/>
    </flow>
    <flow id="34" begin="0" end="1000000" period="169">
        <route edges="A2B2 B2B3 B3C3 C3D3 D3D4 gneE5 -gneE6 F4G4"/>
    </flow>
    <flow id="44" begin="0" end="1000000" period="144">
        <route edges="A3B3 B3C3 C3D3 D3D2 D2D1 D1D0"/>
    </flow>
    <flow id="52" begin="0" end="1000000" period="140">
        <route edges="A3B3 B3C3 C3D3 D3D4 gneE5 -gneE6 F4G4"/>
    </flow>
    <flow id="69" begin="0" end="1000000" period="252">
        <route edges="A4B4 B4C4 C4D4 gneE5 gneE3 E3F3 F3G3"/>
    </flow>
    <flow id="82" begin="0" end="1000000" period="216">
        <route edges="A5B5 B5C5 C5D5 D5D4 D4D3 D3D2 D2D1 D1E1 E1E0"/>
    </flow>
    <flow id="99" begin="0" end="1000000" period="192">
        <route edges="B0B1 B1B2 B2B3 B3C3 C3D3 D3D4 D4D5 D5D6"/>
    </flow>
    <flow id="178" begin="0" end="1000000" period="168">
        <route edges="D0D1 D1D2 D2D3 D3D4 gneE5 -gneE6 F4G4"/>
    </flow>
    <flow id="3" begin="3" end="1000000" period="359">
        <route edges="A1B1 B1B2 B2B3 B3B4 B4B5 B5A5"/>
    </flow>
    <flow id="5" begin="7" end="1000000" period="359">
        <route edges="A1B1 B1B2 B2B3 B3B4 B4B5 B5B6"/>
    </flow>
    <flow id="7" begin="10" end="1000000" period="359">
        <route edges="A1B1 B1B2 B2B3 B3B4 B4B5 B5C5 C5C6"/>
    </flow>
    <flow id="10" begin="13" end="1000000" period="359">
        <route edges="A1B1 B1C1 C1D1 D1E1 E1E0"/>
    </flow>
    <flow id="105" begin="16" end="1000000" period="192">
        <route edges="B0B1 B1B2 B2B3 B3C3 C3D3 D3E3 E3F3 F3G3"/>
    </flow>
    <flow id="12" begin="17" end="1000000" period="359">
        <route edges="A1B1 B1C1 C1D1 D1E1 E1F1 F1F0"/>
    </flow>
    <flow id="48" begin="19" end="1000000" period="169">
        <route edges="A3B3 B3C3 C3D3 D3E3 E3F3 F3F2 F2F1 F1F0"/>
    </flow>
    <flow id="13" begin="20" end="1000000" period="359">
        <route edges="A1B1 B1C1 C1D1 D1E1 E1F1 F1F2 F2F3 F3F4 F4F5 F5F6"/>
    </flow>
    <flow id="14" begin="23" end="1000000" period="359">
        <route edges="A1B1 B1C1 C1D1 D1E1 E1F1 F1G1"/>
    </flow>
    <flow id="45" begin="24" end="1000000" period="144">
        <route edges="A3B3 B3C3 C3D3 D3D4 D4D5 D5D6"/>
    </flow>
    <flow id="158" begin="24" end="1000000" period="216">
        <route edges="C6C5 C5D5 D5D4 D4D3 D3D2 D2D1 D1E1 E1F1 F1G1"/>
    </flow>
    <flow id="21" begin="27" end="1000000" period="359">
        <route edges="A2B2 B2B3 B3B4 B4B5 B5A5"/>
    </flow>
    <flow id="23" begin="30" end="1000000" period="359">
        <route edges="A2B2 B2B3 B3B4 B4B5 B5B6"/>
    </flow>
    <flow id="86" begin="32" end="1000000" period="225">
        <route edges="A5B5 B5C5 C5D5 D5D4 D4D3 D3D2 D2D1 D1E1 E1F1 F1G1"/>
    </flow>
    <flow id="116" begin="32" end="1000000" period="192">
        <route edges="B6B5 B5B4 B4B3 B3C3 C3D3 D3D2 D2D1 D1D0"/>
    </flow>
    <flow id="25" begin="33" end="1000000" period="359">
        <route edges="A2B2 B2B3 B3B4 B4B5 B5C5 C5C6"/>
    </flow>
    <flow id="124" begin="36" end="1000000" period="252">
        <route edges="B6B5 B5B4 B4C4 C4D4 gneE5 -gneE6 F4G4"/>
    </flow>
    <flow id="26" begin="37" end="1000000" period="359">
        <route edges="A2B2 B2B1 B1C1 C1D1 D1D0"/>
    </flow>
    <flow id="49" begin="38" end="1000000" period="169">
        <route edges="A3B3 B3C3 C3D3 D3E3 E3F3 F3F4 F4F5 F5F6"/>
    </flow>
    <flow id="28" begin="40" end="1000000" period="359">
        <route edges="A2B2 B2B1 B1C1 C1D1 D1E1 E1E0"/>
    </flow>
    <flow id="31" begin="40" end="1000000" period="202">
        <route edges="A2B2 B2B3 B3C3 C3D3 D3E3 E3F3 F3F4 F4F5 F5F6"/>
    </flow>
    <flow id="30" begin="43" end="1000000" period="359">
        <route edges="A2B2 B2B1 B1C1 C1D1 D1E1 E1F1 F1F0"/>
    </flow>
    <flow id="32" begin="47" end="1000000" period="359">
        <route edges="A2B2 B2B1 B1C1 C1D1 D1E1 E1F1 F1G1"/>
    </flow>
    <flow id="51" begin="48" end="1000000" period="144">
        <route edges="A3B3 B3C3 C3D3 D3E3 E3F3 F3G3"/>
    </flow>
    <flow id="160" begin="48" end="1000000" period="216">
        <route edges="C6C5 C5D5 D5D4 gneE5 -gneE6 F4G4"/>
    </flow>
    <flow id="123" begin="48" end="1000000" period="192">
        <route edges="B6B5 B5B4 B4B3 B3C3 C3D3 D3E3 E3F3 F3G3"/>
    </flow>
    <flow id="35" begin="50" end="1000000" period="359">
        <route edges="A2B2 B2B3 B3B4 B4B5 B5C5 C5D5 D5E5 E5F5 F5G5"/>
    </flow>
    <flow id="54" begin="53" end="1000000" period="359">
        <route edges="A4B4 B4B3 B3B2 B2B1 B1A1"/>
    </flow>
    <flow id="50" begin="56" end="1000000" period="169">
        <route edges="A3B3 B3C3 C3D3 D3D2 D2D1 D1E1 E1F1 F1G1"/>
    </flow>
    <flow id="58" begin="57" end="1000000" period="359">
        <route edges="A4B4 B4B3 B3B2 B2B1 B1B0"/>
    </flow>
    <flow id="60" begin="60" end="1000000" period="359">
        <route edges="A4B4 B4B3 B3B2 B2B1 B1C1 C1C0"/>
    </flow>
    <flow id="64" begin="63" end="1000000" period="359">
        <route edges="A4B4 B4B3 B3B2 B2B1 B1C1 C1D1 D1E1 E1E0"/>
    </flow>
    <flow id="231" begin="64" end="1000000" period="225">
        <route edges="E6E5 gneE1 gneE3 E3F3 F3G3"/>
    </flow>
    <flow id="168" begin="64" end="1000000" period="192">
        <route edges="D0D1 D1D2 D2D3 D3C3 C3B3 B3B4 B4B5 B5B6"/>
    </flow>
    <flow id="65" begin="66" end="1000000" period="359">
        <route edges="A4B4 B4B5 B5C5 C5D5 D5E5 E5E6"/>
    </flow>
    <flow id="67" begin="70" end="1000000" period="359">
        <route edges="A4B4 B4B5 B5C5 C5D5 D5E5 E5F5 F5F6"/>
    </flow>
    <flow id="308" begin="70" end="1000000" period="140">
        <route edges="G4F4 gneE6 -gneE5 D4D3 D3C3 C3B3 B3A3"/>
    </flow>
    <flow id="164" begin="72" end="1000000" period="144">
        <route edges="D0D1 D1D2 D2D3 D3C3 C3B3 B3A3"/>
    </flow>
    <flow id="159" begin="72" end="1000000" period="252">
        <route edges="C6C5 C5D5 D5E5 gneE1 gneE3 E3F3 F3G3"/>
    </flow>
    <flow id="202" begin="72" end="1000000" period="216">
        <route edges="E0E1 E1D1 D1D2 D2D3 D3D4 D4D5 D5C5 C5B5 B5A5"/>
    </flow>
    <flow id="68" begin="73" end="1000000" period="359">
        <route edges="A4B4 B4B3 B3B2 B2B1 B1C1 C1D1 D1E1 E1F1 F1G1"/>
    </flow>
    <flow id="236" begin="75" end="1000000" period="169">
        <route edges="F0F1 F1F2 F2F3 F3E3 E3D3 D3C3 C3B3 B3A3"/>
    </flow>
    <flow id="71" begin="76" end="1000000" period="359">
        <route edges="A4B4 B4B5 B5C5 C5D5 D5E5 E5F5 F5G5"/>
    </flow>
    <flow id="72" begin="80" end="1000000" period="359">
        <route edges="A5B5 B5B4 B4B3 B3B2 B2B1 B1A1"/>
    </flow>
    <flow id="209" begin="80" end="1000000" period="192">
        <route edges="E0E1 E1D1 D1D2 D2D3 D3E3 -gneE3 -gneE1 E5E6"/>
    </flow>
    <flow id="216" begin="81" end="1000000" period="202">
        <route edges="E6E5 gneE1 -gneE5 D4D3 D3D2 D2D1 D1C1 C1B1 B1A1"/>
    </flow>
    <flow id="73" begin="83" end="1000000" period="359">
        <route edges="A5B5 B5B4 B4B3 B3B2 B2A2"/>
    </flow>
    <flow id="315" begin="84" end="1000000" period="168">
        <route edges="G4F4 gneE6 -gneE5 D4D3 D3D2 D2D1 D1D0"/>
    </flow>
    <flow id="76" begin="86" end="1000000" period="359">
        <route edges="A5B5 B5B4 B4B3 B3B2 B2B1 B1B0"/>
    </flow>
    <flow id="78" begin="90" end="1000000" period="359">
        <route edges="A5B5 B5B4 B4B3 B3B2 B2B1 B1C1 C1C0"/>
    </flow>
    <flow id="83" begin="93" end="1000000" period="359">
        <route edges="A5B5 B5C5 C5D5 D5E5 E5E6"/>
    </flow>
    <flow id="254" begin="94" end="1000000" period="169">
        <route edges="F6F5 F5F4 F4F3 F3E3 E3D3 D3C3 C3B3 B3A3"/>
    </flow>
    <flow id="84" begin="96" end="1000000" period="359">
        <route edges="A5B5 B5C5 C5D5 D5E5 E5F5 F5F4 F4F3 F3F2 F2F1 F1F0"/>
    </flow>
    <flow id="257" begin="96" end="1000000" period="225">
        <route edges="F6F5 F5F4 gneE6 -gneE5 D4D3 D3D2 D2C2 C2B2 B2B1 B1B0"/>
    </flow>
    <flow id="182" begin="96" end="1000000" period="144">
        <route edges="D6D5 D5D4 D4D3 D3C3 C3B3 B3A3"/>
    </flow>
    <flow id="221" begin="96" end="1000000" period="216">
        <route edges="E6E5 gneE1 -gneE5 D4D3 D3D2 D2C2 C2B2 B2B1 B1B0"/>
    </flow>
    <flow id="223" begin="96" end="1000000" period="192">
        <route edges="E6E5 gneE1 -gneE5 D4D3 D3D2 D2D1 D1C1 C1C0"/>
    </flow>
    <flow id="85" begin="100" end="1000000" period="359">
        <route edges="A5B5 B5C5 C5D5 D5E5 E5F5 F5F6"/>
    </flow>
    <flow id="89" begin="103" end="1000000" period="359">
        <route edges="A5B5 B5C5 C5D5 D5E5 E5F5 F5G5"/>
    </flow>
    <flow id="93" begin="106" end="1000000" period="359">
        <route edges="B0B1 B1B2 B2B3 B3B4 B4A4"/>
    </flow>
    <flow id="228" begin="108" end="1000000" period="252">
        <route edges="E6E5 gneE1 gneE3 E3F3 F3F2 F2F1 F1F0"/>
    </flow>
    <flow id="94" begin="110" end="1000000" period="359">
        <route edges="B0B1 B1B2 B2B3 B3B4 B4B5 B5A5"/>
    </flow>
    <flow id="227" begin="112" end="1000000" period="192">
        <route edges="E6E5 gneE1 -gneE5 D4D3 D3D2 D2D1 D1E1 E1E0"/>
    </flow>
    <flow id="95" begin="113" end="1000000" period="359">
        <route edges="B0B1 B1B2 B2B3 B3B4 B4B5 B5B6"/>
    </flow>
    <flow id="272" begin="113" end="1000000" period="169">
        <route edges="G1F1 F1E1 E1D1 D1D2 D2D3 D3C3 C3B3 B3A3"/>
    </flow>
    <flow id="97" begin="116" end="1000000" period="359">
        <route edges="B0B1 B1B2 B2B3 B3B4 B4B5 B5C5 C5C6"/>
    </flow>
    <flow id="100" begin="120" end="1000000" period="359">
        <route edges="B0B1 B1C1 C1D1 D1E1 E1E0"/>
    </flow>
    <flow id="290" begin="120" end="1000000" period="144">
        <route edges="G3F3 F3E3 E3D3 D3C3 C3B3 B3A3"/>
    </flow>
    <flow id="253" begin="120" end="1000000" period="216">
        <route edges="F6F5 F5F4 gneE6 -gneE5 D4D3 D3D2 D2C2 C2B2 B2A2"/>
    </flow>
    <flow id="237" begin="121" end="1000000" period="202">
        <route edges="F0F1 F1F2 F2F3 F3E3 E3D3 D3C3 C3B3 B3B4 B4A4"/>
    </flow>
    <flow id="102" begin="123" end="1000000" period="359">
        <route edges="B0B1 B1C1 C1D1 D1E1 E1F1 F1F0"/>
    </flow>
    <flow id="104" begin="126" end="1000000" period="359">
        <route edges="B0B1 B1C1 C1D1 D1E1 E1F1 F1G1"/>
    </flow>
    <flow id="261" begin="128" end="1000000" period="192">
        <route edges="F6F5 F5F4 gneE6 -gneE5 D4D3 D3D2 D2D1 D1D0"/>
    </flow>
    <flow id="274" begin="129" end="1000000" period="225">
        <route edges="G1F1 F1E1 E1D1 D1D2 D2D3 D3D4 D4D5 D5C5 C5B5 B5A5"/>
    </flow>
    <flow id="107" begin="130" end="1000000" period="359">
        <route edges="B0B1 B1B2 B2B3 B3B4 B4B5 B5C5 C5D5 D5E5 E5F5 F5G5"/>
    </flow>
    <flow id="309" begin="131" end="1000000" period="169">
        <route edges="G4F4 gneE6 -gneE5 D4D3 D3C3 C3B3 B3B4 B4A4"/>
    </flow>
    <flow id="108" begin="133" end="1000000" period="359">
        <route edges="B6B5 B5B4 B4B3 B3B2 B2B1 B1A1"/>
    </flow>
    <flow id="109" begin="136" end="1000000" period="359">
        <route edges="B6B5 B5B4 B4B3 B3B2 B2A2"/>
    </flow>
    <flow id="113" begin="140" end="1000000" period="359">
        <route edges="B6B5 B5B4 B4B3 B3B2 B2B1 B1B0"/>
    </flow>
    <flow id="53" begin="140" end="1000000" period="160">
        <route edges="A3B3 B3C3 C3D3 D3E3 -gneE3 -gneE1 E5F5 F5G5"/>
    </flow>
    <flow id="114" begin="143" end="1000000" period="359">
        <route edges="B6B5 B5B4 B4B3 B3B2 B2B1 B1C1 C1C0"/>
    </flow>
    <flow id="46" begin="144" end="1000000" period="157">
        <route edges="A3B3 B3C3 C3D3 D3D2 D2D1 D1E1 E1E0"/>
    </flow>
    <flow id="230" begin="144" end="1000000" period="252">
        <route edges="E6E5 gneE1 gneE3 E3F3 F3F2 F2F1 F1G1"/>
    </flow>
    <flow id="278" begin="144" end="1000000" period="216">
        <route edges="G1F1 F1E1 E1D1 D1D2 D2D3 D3D4 D4D5 D5C5 C5C6"/>
    </flow>
    <flow id="293" begin="144" end="1000000" period="192">
        <route edges="G3F3 F3E3 E3D3 D3C3 C3B3 B3B2 B2B1 B1B0"/>
    </flow>
    <flow id="118" begin="146" end="1000000" period="359">
        <route edges="B6B5 B5B4 B4B3 B3B2 B2B1 B1C1 C1D1 D1E1 E1E0"/>
    </flow>
    <flow id="119" begin="150" end="1000000" period="359">
        <route edges="B6B5 B5C5 C5D5 D5E5 E5E6"/>
    </flow>
    <flow id="326" begin="150" end="1000000" period="169">
        <route edges="G5F5 F5E5 E5D5 D5D4 D4D3 D3C3 C3B3 B3A3"/>
    </flow>
    <flow id="200" begin="150" end="1000000" period="157">
        <route edges="E0E1 E1D1 D1D2 D2D3 D3C3 C3B3 B3A3"/>
    </flow>
    <flow id="121" begin="153" end="1000000" period="359">
        <route edges="B6B5 B5C5 C5D5 D5E5 E5F5 F5F6"/>
    </flow>
    <flow id="122" begin="156" end="1000000" period="359">
        <route edges="B6B5 B5B4 B4B3 B3B2 B2B1 B1C1 C1D1 D1E1 E1F1 F1G1"/>
    </flow>
    <flow id="125" begin="160" end="1000000" period="359">
        <route edges="B6B5 B5C5 C5D5 D5E5 E5F5 F5G5"/>
    </flow>
    <flow id="62" begin="160" end="1000000" period="210">
        <route edges="A4B4 B4C4 C4D4 D4D3 D3D2 D2D1 D1D0"/>
    </flow>
    <flow id="294" begin="160" end="1000000" period="192">
        <route edges="G3F3 F3E3 E3D3 D3C3 C3B3 B3B4 B4B5 B5B6"/>
    </flow>
    <flow id="300" begin="161" end="1000000" period="225">
        <route edges="G3F3 F3E3 -gneE3 -gneE1 E5E6"/>
    </flow>
    <flow id="311" begin="162" end="1000000" period="202">
        <route edges="G4F4 gneE6 -gneE5 D4D3 D3D2 D2C2 C2B2 B2B1 B1B0"/>
    </flow>
    <flow id="129" begin="163" end="1000000" period="359">
        <route edges="C0C1 C1B1 B1B2 B2B3 B3B4 B4A4"/>
    </flow>
    <flow id="130" begin="166" end="1000000" period="359">
        <route edges="C0C1 C1B1 B1B2 B2B3 B3B4 B4B5 B5A5"/>
    </flow>
    <flow id="314" begin="168" end="1000000" period="216">
        <route edges="G4F4 gneE6 -gneE5 D4D5 D5C5 C5C6"/>
    </flow>
    <flow id="185" begin="168" end="1000000" period="221">
        <route edges="D6D5 D5D4 D4D3 D3D2 D2C2 C2B2 B2B1 B1B0"/>
    </flow>
    <flow id="42" begin="169" end="1000000" period="257">
        <route edges="A3B3 B3B2 B2B1 B1C1 C1C0"/>
    </flow>
    <flow id="132" begin="170" end="1000000" period="359">
        <route edges="C0C1 C1B1 B1B2 B2B3 B3B4 B4B5 B5B6"/>
    </flow>
    <flow id="141" begin="170" end="1000000" period="210">
        <route edges="C0C1 C1C2 C2C3 C3D3 D3E3 E3F3 F3G3"/>
    </flow>
    <flow id="133" begin="173" end="1000000" period="359">
        <route edges="C0C1 C1C2 C2C3 C3C4 C4C5 C5C6"/>
    </flow>
    <flow id="138" begin="176" end="1000000" period="359">
        <route edges="C0C1 C1D1 D1E1 E1F1 F1F0"/>
    </flow>
    <flow id="307" begin="176" end="1000000" period="192">
        <route edges="G4F4 gneE6 -gneE5 D4D3 D3D2 D2C2 C2B2 B2A2"/>
    </flow>
    <flow id="139" begin="180" end="1000000" period="359">
        <route edges="C0C1 C1D1 D1E1 E1F1 F1F2 F2F3 F3F4 F4F5 F5F6"/>
    </flow>
    <flow id="181" begin="180" end="1000000" period="210">
        <route edges="D6D5 D5D4 D4D3 D3D2 D2C2 C2B2 B2A2"/>
    </flow>
    <flow id="246" begin="180" end="1000000" period="252">
        <route edges="F0F1 F1F2 F2F3 F3E3 -gneE3 -gneE1 E5E6"/>
    </flow>
    <flow id="140" begin="183" end="1000000" period="359">
        <route edges="C0C1 C1D1 D1E1 E1F1 F1G1"/>
    </flow>
    <flow id="144" begin="186" end="1000000" period="359">
        <route edges="C6C5 C5B5 B5B4 B4B3 B3B2 B2B1 B1A1"/>
    </flow>
    <flow id="145" begin="189" end="1000000" period="359">
        <route edges="C6C5 C5B5 B5B4 B4B3 B3B2 B2A2"/>
    </flow>
    <flow id="289" begin="190" end="1000000" period="210">
        <route edges="G3F3 F3E3 E3D3 D3D2 D2C2 C2B2 B2A2"/>
    </flow>
    <flow id="331" begin="192" end="1000000" period="216">
        <route edges="G5F5 F5E5 E5D5 D5D4 D4D3 D3D2 D2D1 D1C1 C1C0"/>
    </flow>
    <flow id="103" begin="192" end="1000000" period="211">
        <route edges="B0B1 B1B2 B2B3 B3C3 C3D3 D3E3 E3F3 F3F4 F4F5 F5F6"/>
    </flow>
    <flow id="149" begin="193" end="1000000" period="359">
        <route edges="C6C5 C5B5 B5B4 B4B3 B3B2 B2B1 B1B0"/>
    </flow>
    <flow id="324" begin="193" end="1000000" period="225">
        <route edges="G5F5 F5E5 E5D5 D5D4 D4D3 D3D2 D2D1 D1C1 C1B1 B1A1"/>
    </flow>
    <flow id="156" begin="196" end="1000000" period="359">
        <route edges="C6C5 C5D5 D5E5 E5F5 F5F4 F4F3 F3F2 F2F1 F1F0"/>
    </flow>
    <flow id="120" begin="198" end="1000000" period="211">
        <route edges="B6B5 B5B4 B4B3 B3C3 C3D3 D3E3 E3F3 F3F2 F2F1 F1F0"/>
    </flow>
    <flow id="157" begin="199" end="1000000" period="359">
        <route edges="C6C5 C5D5 D5E5 E5F5 F5F6"/>
    </flow>
    <flow id="296" begin="200" end="1000000" period="210">
        <route edges="G3F3 F3E3 E3D3 D3C3 C3C4 C4C5 C5C6"/>
    </flow>
    <flow id="161" begin="203" end="1000000" period="359">
        <route edges="C6C5 C5D5 D5E5 E5F5 F5G5"/>
    </flow>
    <flow id="240" begin="205" end="1000000" period="211">
        <route edges="F0F1 F1F2 F2F3 F3E3 E3D3 D3C3 C3B3 B3B4 B4B5 B5B6"/>
    </flow>
    <flow id="183" begin="206" end="1000000" period="359">
        <route edges="D6D5 D5C5 C5B5 B5B4 B4A4"/>
    </flow>
    <flow id="198" begin="209" end="1000000" period="359">
        <route edges="E0E1 E1D1 D1C1 C1B1 B1A1"/>
    </flow>
    <flow id="63" begin="210" end="1000000" period="299">
        <route edges="A4B4 B4C4 C4D4 D4D5 D5D6"/>
    </flow>
    <flow id="135" begin="211" end="1000000" period="314">
        <route edges="C0C1 C1C2 C2C3 C3C4 C4D4 D4D5 D5D6"/>
    </flow>
    <flow id="199" begin="213" end="1000000" period="359">
        <route edges="E0E1 E1D1 D1C1 C1B1 B1B2 B2A2"/>
    </flow>
    <flow id="146" begin="213" end="1000000" period="257">
        <route edges="C6C5 C5B5 B5B4 B4B3 B3A3"/>
    </flow>
    <flow id="201" begin="216" end="1000000" period="359">
        <route edges="E0E1 E1D1 D1C1 C1B1 B1B2 B2B3 B3B4 B4A4"/>
    </flow>
    <flow id="282" begin="216" end="1000000" period="252">
        <route edges="G1F1 F1F2 F2F3 F3E3 -gneE3 -gneE1 E5E6"/>
    </flow>
    <flow id="87" begin="216" end="1000000" period="261">
        <route edges="A5B5 B5C5 C5D5 D5E5 gneE1 gneE3 E3F3 F3G3"/>
    </flow>
    <flow id="203" begin="219" end="1000000" period="359">
        <route edges="E0E1 E1D1 D1C1 C1B1 B1B0"/>
    </flow>
    <flow id="214" begin="221" end="1000000" period="308">
        <route edges="E0E1 E1F1 F1F2 F2F3 F3F4 F4G4"/>
    </flow>
    <flow id="204" begin="223" end="1000000" period="359">
        <route edges="E0E1 E1D1 D1C1 C1B1 B1B2 B2B3 B3B4 B4B5 B5B6"/>
    </flow>
    <flow id="163" begin="225" end="1000000" period="299">
        <route edges="D0D1 D1D2 D2C2 C2B2 B2A2"/>
    </flow>
    <flow id="211" begin="226" end="1000000" period="359">
        <route edges="E0E1 E1F1 F1F2 F2F3 F3F4 F4F5 F5F6"/>
    </flow>
    <flow id="213" begin="229" end="1000000" period="359">
        <route edges="E0E1 E1F1 F1F2 F2F3 F3G3"/>
    </flow>
    <flow id="142" begin="231" end="1000000" period="261">
        <route edges="C0C1 C1C2 C2C3 C3C4 C4D4 gneE5 -gneE6 F4G4"/>
    </flow>
    <flow id="215" begin="233" end="1000000" period="359">
        <route edges="E0E1 E1F1 F1F2 F2F3 F3F4 F4F5 F5G5"/>
    </flow>
    <flow id="219" begin="236" end="1000000" period="359">
        <route edges="E6E5 E5D5 D5C5 C5B5 B5B4 B4A4"/>
    </flow>
    <flow id="220" begin="239" end="1000000" period="359">
        <route edges="E6E5 E5D5 D5C5 C5B5 B5A5"/>
    </flow>
    <flow id="250" begin="240" end="1000000" period="299">
        <route edges="F0F1 F1F2 F2F3 F3F4 F4G4"/>
    </flow>
    <flow id="222" begin="243" end="1000000" period="359">
        <route edges="E6E5 E5D5 D5C5 C5B5 B5B6"/>
    </flow>
    <flow id="234" begin="246" end="1000000" period="359">
        <route edges="F0F1 F1E1 E1D1 D1C1 C1B1 B1A1"/>
    </flow>
    <flow id="192" begin="246" end="1000000" period="261">
        <route edges="D6D5 D5D4 gneE5 -gneE6 F4F3 F3F2 F2F1 F1F0"/>
    </flow>
    <flow id="235" begin="249" end="1000000" period="359">
        <route edges="F0F1 F1E1 E1D1 D1C1 C1B1 B1B2 B2A2"/>
    </flow>
    <flow id="238" begin="253" end="1000000" period="359">
        <route edges="F0F1 F1F2 F2F3 F3F4 F4F5 F5E5 E5D5 D5C5 C5B5 B5A5"/>
    </flow>
    <flow id="286" begin="255" end="1000000" period="299">
        <route edges="G1F1 F1F2 F2F3 F3F4 F4G4"/>
    </flow>
    <flow id="239" begin="256" end="1000000" period="359">
        <route edges="F0F1 F1E1 E1D1 D1C1 C1B1 B1B0"/>
    </flow>
    <flow id="241" begin="259" end="1000000" period="359">
        <route edges="F0F1 F1E1 E1D1 D1C1 C1C0"/>
    </flow>
    <flow id="242" begin="263" end="1000000" period="359">
        <route edges="F0F1 F1F2 F2F3 F3F4 F4F5 F5E5 E5D5 D5C5 C5C6"/>
    </flow>
    <flow id="317" begin="264" end="1000000" period="308">
        <route edges="G4F4 F4F3 F3F2 F2F1 F1E1 E1E0"/>
    </flow>
    <flow id="247" begin="266" end="1000000" period="359">
        <route edges="F0F1 F1F2 F2F3 F3F4 F4F5 F5F6"/>
    </flow>
    <flow id="251" begin="269" end="1000000" period="359">
        <route edges="F0F1 F1F2 F2F3 F3F4 F4F5 F5G5"/>
    </flow>
    <flow id="319" begin="269" end="1000000" period="299">
        <route edges="G4F4 F4F3 F3F2 F2F1 F1F0"/>
    </flow>
    <flow id="252" begin="273" end="1000000" period="359">
        <route edges="F6F5 F5F4 F4F3 F3F2 F2F1 F1E1 E1D1 D1C1 C1B1 B1A1"/>
    </flow>
    <flow id="255" begin="276" end="1000000" period="359">
        <route edges="F6F5 F5E5 E5D5 D5C5 C5B5 B5B4 B4A4"/>
    </flow>
    <flow id="256" begin="279" end="1000000" period="359">
        <route edges="F6F5 F5E5 E5D5 D5C5 C5B5 B5A5"/>
    </flow>
    <flow id="258" begin="283" end="1000000" period="359">
        <route edges="F6F5 F5E5 E5D5 D5C5 C5B5 B5B6"/>
    </flow>
    <flow id="321" begin="284" end="1000000" period="299">
        <route edges="G4F4 F4F3 F3F2 F2F1 F1G1"/>
    </flow>
    <flow id="259" begin="286" end="1000000" period="359">
        <route edges="F6F5 F5F4 F4F3 F3F2 F2F1 F1E1 E1D1 D1C1 C1C0"/>
    </flow>
    <flow id="260" begin="289" end="1000000" period="359">
        <route edges="F6F5 F5E5 E5D5 D5C5 C5C6"/>
    </flow>
    <flow id="263" begin="293" end="1000000" period="359">
        <route edges="F6F5 F5F4 F4F3 F3F2 F2F1 F1E1 E1E0"/>
    </flow>
    <flow id="265" begin="296" end="1000000" period="359">
        <route edges="F6F5 F5F4 F4F3 F3F2 F2F1 F1F0"/>
    </flow>
    <flow id="266" begin="299" end="1000000" period="359">
        <route edges="F6F5 F5F4 F4F3 F3F2 F2F1 F1G1"/>
    </flow>
    <flow id="270" begin="302" end="1000000" period="359">
        <route edges="G1F1 F1E1 E1D1 D1C1 C1B1 B1A1"/>
    </flow>
    <flow id="271" begin="306" end="1000000" period="359">
        <route edges="G1F1 F1E1 E1D1 D1C1 C1B1 B1B2 B2A2"/>
    </flow>
    <flow id="273" begin="309" end="1000000" period="359">
        <route edges="G1F1 F1E1 E1D1 D1C1 C1B1 B1B2 B2B3 B3B4 B4A4"/>
    </flow>
    <flow id="275" begin="312" end="1000000" period="359">
        <route edges="G1F1 F1E1 E1D1 D1C1 C1B1 B1B0"/>
    </flow>
    <flow id="143" begin="314" end="1000000" period="323">
        <route edges="C0C1 C1C2 C2C3 C3C4 C4D4 D4D5 D5E5 E5F5 F5G5"/>
    </flow>
    <flow id="276" begin="316" end="1000000" period="359">
        <route edges="G1F1 F1E1 E1D1 D1C1 C1B1 B1B2 B2B3 B3B4 B4B5 B5B6"/>
    </flow>
    <flow id="277" begin="319" end="1000000" period="359">
        <route edges="G1F1 F1E1 E1D1 D1C1 C1C0"/>
    </flow>
    <flow id="284" begin="322" end="1000000" period="359">
        <route edges="G1F1 F1F2 F2F3 F3F4 F4F5 F5F6"/>
    </flow>
    <flow id="287" begin="326" end="1000000" period="359">
        <route edges="G1F1 F1F2 F2F3 F3F4 F4F5 F5G5"/>
    </flow>
    <flow id="299" begin="329" end="1000000" period="359">
        <route edges="G3F3 F3F2 F2F1 F1E1 E1E0"/>
    </flow>
    <flow id="327" begin="332" end="1000000" period="359">
        <route edges="G5F5 F5E5 E5D5 D5C5 C5B5 B5B4 B4A4"/>
    </flow>
    <flow id="328" begin="336" end="1000000" period="359">
        <route edges="G5F5 F5E5 E5D5 D5C5 C5B5 B5A5"/>
    </flow>
    <flow id="329" begin="339" end="1000000" period="359">
        <route edges="G5F5 F5E5 E5D5 D5C5 C5B5 B5B4 B4B3 B3B2 B2B1 B1B0"/>
    </flow>
    <flow id="330" begin="342" end="1000000" period="359">
        <route edges="G5F5 F5E5 E5D5 D5C5 C5B5 B5B6"/>
    </flow>
    <flow id="332" begin="346" end="1000000" period="359">
        <route edges="G5F5 F5E5 E5D5 D5C5 C5C6"/>
    </flow>
    <flow id="335" begin="349" end="1000000" period="359">
        <route edges="G5F5 F5F4 F4F3 F3F2 F2F1 F1E1 E1E0"/>
    </flow>
    <flow id="337" begin="352" end="1000000" period="359">
        <route edges="G5F5 F5F4 F4F3 F3F2 F2F1 F1F0"/>
    </flow>
    <flow id="339" begin="356" end="1000000" period="359">
        <route edges="G5F5 F5F4 F4F3 F3F2 F2F1 F1G1"/>
    </flow>
</routes>