<?xml version="1.0" encoding="UTF-8"?>

<!-- generated on Mon Mar  1 22:58:42 2021 by Eclipse SUMO netedit Version 1.6.0
<configuration xmlns:xsi="http://www.w3.org/2001/XMLSchema-instance" xsi:noNamespaceSchemaLocation="http://sumo.dlr.de/xsd/netconvertConfiguration.xsd">

    <input>
        <sumo-net-file value="net/synthetic.net.xml"/>
    </input>

    <output>
        <output-file value="net/synthetic.net.xml"/>
    </output>

    <processing>
        <geometry.min-radius.fix.railways value="false"/>
        <geometry.max-grade.fix value="false"/>
        <offset.disable-normalization value="true"/>
        <lefthand value="false"/>
    </processing>

    <junctions>
        <no-turnarounds value="true"/>
        <junctions.corner-detail value="5"/>
        <junctions.limit-turn-speed value="5.5"/>
        <rectangular-lane-cut value="false"/>
    </junctions>

    <pedestrian>
        <walkingareas value="false"/>
    </pedestrian>

    <report>
        <aggregate-warnings value="5"/>
    </report>

</configuration>
-->

<net version="1.6" junctionCornerDetail="5" limitTurnSpeed="5.50" xmlns:xsi="http://www.w3.org/2001/XMLSchema-instance" xsi:noNamespaceSchemaLocation="http://sumo.dlr.de/xsd/net_file.xsd">

    <location netOffset="0.00,0.00" convBoundary="-100.00,-100.00,700.00,700.00" origBoundary="0.00,0.00,600.00,600.00" projParameter="!"/>

    <edge id=":B1_0" function="internal">
        <lane id=":B1_0_0" index="0" speed="6.51" length="9.03" shape="98.40,107.20 98.05,104.75 97.00,103.00 95.25,101.95 92.80,101.60"/>
    </edge>
    <edge id=":B1_1" function="internal">
        <lane id=":B1_1_0" index="0" speed="13.89" length="14.40" shape="98.40,107.20 98.40,92.80"/>
    </edge>
    <edge id=":B1_2" function="internal">
        <lane id=":B1_2_0" index="0" speed="8.00" length="5.93" shape="98.40,107.20 98.95,103.35 100.00,101.60"/>
    </edge>
    <edge id=":B1_12" function="internal">
        <lane id=":B1_12_0" index="0" speed="8.00" length="8.26" shape="100.00,101.60 100.60,100.60 103.35,98.95 107.20,98.40"/>
    </edge>
    <edge id=":B1_3" function="internal">
        <lane id=":B1_3_0" index="0" speed="6.51" length="9.03" shape="107.20,101.60 104.75,101.95 103.00,103.00 101.95,104.75 101.60,107.20"/>
    </edge>
    <edge id=":B1_4" function="internal">
        <lane id=":B1_4_0" index="0" speed="13.89" length="14.40" shape="107.20,101.60 92.80,101.60"/>
    </edge>
    <edge id=":B1_5" function="internal">
        <lane id=":B1_5_0" index="0" speed="8.00" length="5.93" shape="107.20,101.60 103.35,101.05 101.60,100.00"/>
    </edge>
    <edge id=":B1_13" function="internal">
        <lane id=":B1_13_0" index="0" speed="8.00" length="8.26" shape="101.60,100.00 100.60,99.40 98.95,96.65 98.40,92.80"/>
    </edge>
    <edge id=":B1_6" function="internal">
        <lane id=":B1_6_0" index="0" speed="6.51" length="9.03" shape="101.60,92.80 101.95,95.25 103.00,97.00 104.75,98.05 107.20,98.40"/>
    </edge>
    <edge id=":B1_7" function="internal">
        <lane id=":B1_7_0" index="0" speed="13.89" length="14.40" shape="101.60,92.80 101.60,107.20"/>
    </edge>
    <edge id=":B1_8" function="internal">
        <lane id=":B1_8_0" index="0" speed="8.00" length="5.93" shape="101.60,92.80 101.05,96.65 100.00,98.40"/>
    </edge>
    <edge id=":B1_14" function="internal">
        <lane id=":B1_14_0" index="0" speed="8.00" length="8.26" shape="100.00,98.40 99.40,99.40 96.65,101.05 92.80,101.60"/>
    </edge>
    <edge id=":B1_9" function="internal">
        <lane id=":B1_9_0" index="0" speed="6.51" length="9.03" shape="92.80,98.40 95.25,98.05 97.00,97.00 98.05,95.25 98.40,92.80"/>
    </edge>
    <edge id=":B1_10" function="internal">
        <lane id=":B1_10_0" index="0" speed="13.89" length="14.40" shape="92.80,98.40 107.20,98.40"/>
    </edge>
    <edge id=":B1_11" function="internal">
        <lane id=":B1_11_0" index="0" speed="8.00" length="5.93" shape="92.80,98.40 96.65,98.95 98.40,100.00"/>
    </edge>
    <edge id=":B1_15" function="internal">
        <lane id=":B1_15_0" index="0" speed="8.00" length="8.26" shape="98.40,100.00 99.40,100.60 101.05,103.35 101.60,107.20"/>
    </edge>
    <edge id=":B2_0" function="internal">
        <lane id=":B2_0_0" index="0" speed="6.51" length="9.03" shape="98.40,207.20 98.05,204.75 97.00,203.00 95.25,201.95 92.80,201.60"/>
    </edge>
    <edge id=":B2_1" function="internal">
        <lane id=":B2_1_0" index="0" speed="13.89" length="14.40" shape="98.40,207.20 98.40,192.80"/>
    </edge>
    <edge id=":B2_2" function="internal">
        <lane id=":B2_2_0" index="0" speed="6.51" length="9.03" shape="107.20,201.60 104.75,201.95 103.00,203.00 101.95,204.75 101.60,207.20"/>
    </edge>
    <edge id=":B2_3" function="internal">
        <lane id=":B2_3_0" index="0" speed="13.89" length="14.40" shape="107.20,201.60 92.80,201.60"/>
    </edge>
    <edge id=":B2_4" function="internal">
        <lane id=":B2_4_0" index="0" speed="8.00" length="14.19" shape="107.20,201.60 103.35,201.05 100.60,199.40 98.95,196.65 98.40,192.80"/>
    </edge>
    <edge id=":B2_5" function="internal">
        <lane id=":B2_5_0" index="0" speed="13.89" length="14.40" shape="101.60,192.80 101.60,207.20"/>
    </edge>
    <edge id=":B2_6" function="internal">
        <lane id=":B2_6_0" index="0" speed="8.00" length="5.93" shape="101.60,192.80 101.05,196.65 100.00,198.40"/>
    </edge>
    <edge id=":B2_9" function="internal">
        <lane id=":B2_9_0" index="0" speed="8.00" length="8.26" shape="100.00,198.40 99.40,199.40 96.65,201.05 92.80,201.60"/>
    </edge>
    <edge id=":B2_7" function="internal">
        <lane id=":B2_7_0" index="0" speed="6.51" length="9.03" shape="92.80,198.40 95.25,198.05 97.00,197.00 98.05,195.25 98.40,192.80"/>
    </edge>
    <edge id=":B2_8" function="internal">
        <lane id=":B2_8_0" index="0" speed="8.00" length="14.19" shape="92.80,198.40 96.65,198.95 99.40,200.60 101.05,203.35 101.60,207.20"/>
    </edge>
    <edge id=":B3_0" function="internal">
        <lane id=":B3_0_0" index="0" speed="6.51" length="9.03" shape="98.40,313.60 98.05,311.15 97.00,309.40 95.25,308.35 92.80,308.00"/>
    </edge>
    <edge id=":B3_1" function="internal">
        <lane id=":B3_1_0" index="0" speed="9.09" length="9.87" shape="98.40,313.60 99.16,308.76 101.01,304.15"/>
    </edge>
    <edge id=":B3_2" function="internal">
        <lane id=":B3_2_0" index="0" speed="9.71" length="8.47" shape="98.40,313.60 99.16,307.86 100.00,305.31"/>
    </edge>
    <edge id=":B3_3" function="internal">
        <lane id=":B3_3_0" index="0" speed="13.89" length="27.20" shape="98.40,313.60 98.40,286.40"/>
    </edge>
    <edge id=":B3_4" function="internal">
        <lane id=":B3_4_0" index="0" speed="10.31" length="9.80" shape="98.40,313.60 99.16,306.95 100.00,303.96"/>
    </edge>
    <edge id=":B3_5" function="internal">
        <lane id=":B3_5_0" index="0" speed="7.33" length="11.73" shape="98.40,313.60 98.05,309.75 97.00,307.00 95.25,305.35 92.80,304.80"/>
    </edge>
    <edge id=":B3_6" function="internal">
        <lane id=":B3_6_0" index="0" speed="8.10" length="14.57" shape="98.40,313.60 98.05,308.35 97.00,304.60 95.25,302.35 92.80,301.60"/>
    </edge>
    <edge id=":B3_24" function="internal">
        <lane id=":B3_24_0" index="0" speed="9.09" length="8.73" shape="101.01,304.15 101.15,303.80 103.97,299.95 107.20,298.40"/>
    </edge>
    <edge id=":B3_25" function="internal">
        <lane id=":B3_25_0" index="0" speed="9.71" length="12.92" shape="100.00,305.31 101.15,301.85 103.97,297.12 107.20,295.20"/>
    </edge>
    <edge id=":B3_26" function="internal">
        <lane id=":B3_26_0" index="0" speed="10.31" length="14.46" shape="100.00,303.96 101.15,299.88 103.97,294.28 107.20,292.00"/>
    </edge>
    <edge id=":B3_7" function="internal">
        <lane id=":B3_7_0" index="0" speed="6.51" length="9.03" shape="107.20,308.00 104.75,308.35 103.00,309.40 101.95,311.15 101.60,313.60"/>
    </edge>
    <edge id=":B3_8" function="internal">
        <lane id=":B3_8_0" index="0" speed="13.89" length="14.40" shape="107.20,308.00 92.80,308.00"/>
        <lane id=":B3_8_1" index="1" speed="13.89" length="14.40" shape="107.20,304.80 92.80,304.80"/>
        <lane id=":B3_8_2" index="2" speed="13.89" length="14.40" shape="107.20,301.60 92.80,301.60"/>
    </edge>
    <edge id=":B3_11" function="internal">
        <lane id=":B3_11_0" index="0" speed="9.32" length="4.87" shape="107.20,301.60 103.35,300.65 102.72,300.00"/>
    </edge>
    <edge id=":B3_27" function="internal">
        <lane id=":B3_27_0" index="0" speed="9.32" length="14.76" shape="102.72,300.00 100.60,297.80 98.95,293.05 98.40,286.40"/>
    </edge>
    <edge id=":B3_12" function="internal">
        <lane id=":B3_12_0" index="0" speed="6.51" length="9.03" shape="101.60,286.40 101.95,288.85 103.00,290.60 104.75,291.65 107.20,292.00"/>
    </edge>
    <edge id=":B3_13" function="internal">
        <lane id=":B3_13_0" index="0" speed="9.09" length="9.87" shape="101.60,286.40 100.84,291.24 98.99,295.85"/>
    </edge>
    <edge id=":B3_14" function="internal">
        <lane id=":B3_14_0" index="0" speed="9.71" length="8.47" shape="101.60,286.40 100.84,292.14 100.00,294.69"/>
    </edge>
    <edge id=":B3_15" function="internal">
        <lane id=":B3_15_0" index="0" speed="13.89" length="27.20" shape="101.60,286.40 101.60,313.60"/>
    </edge>
    <edge id=":B3_16" function="internal">
        <lane id=":B3_16_0" index="0" speed="10.31" length="9.80" shape="101.60,286.40 100.84,293.05 100.00,296.04"/>
    </edge>
    <edge id=":B3_17" function="internal">
        <lane id=":B3_17_0" index="0" speed="7.33" length="11.73" shape="101.60,286.40 101.95,290.25 103.00,293.00 104.75,294.65 107.20,295.20"/>
    </edge>
    <edge id=":B3_18" function="internal">
        <lane id=":B3_18_0" index="0" speed="8.10" length="14.57" shape="101.60,286.40 101.95,291.65 103.00,295.40 104.75,297.65 107.20,298.40"/>
    </edge>
    <edge id=":B3_28" function="internal">
        <lane id=":B3_28_0" index="0" speed="9.09" length="8.73" shape="98.99,295.85 98.85,296.20 96.03,300.05 92.80,301.60"/>
    </edge>
    <edge id=":B3_29" function="internal">
        <lane id=":B3_29_0" index="0" speed="9.71" length="12.92" shape="100.00,294.69 98.85,298.15 96.03,302.88 92.80,304.80"/>
    </edge>
    <edge id=":B3_30" function="internal">
        <lane id=":B3_30_0" index="0" speed="10.31" length="14.46" shape="100.00,296.04 98.85,300.12 96.03,305.72 92.80,308.00"/>
    </edge>
    <edge id=":B3_19" function="internal">
        <lane id=":B3_19_0" index="0" speed="6.51" length="9.03" shape="92.80,292.00 95.25,291.65 97.00,290.60 98.05,288.85 98.40,286.40"/>
    </edge>
    <edge id=":B3_20" function="internal">
        <lane id=":B3_20_0" index="0" speed="13.89" length="14.40" shape="92.80,292.00 107.20,292.00"/>
        <lane id=":B3_20_1" index="1" speed="13.89" length="14.40" shape="92.80,295.20 107.20,295.20"/>
        <lane id=":B3_20_2" index="2" speed="13.89" length="14.40" shape="92.80,298.40 107.20,298.40"/>
    </edge>
    <edge id=":B3_23" function="internal">
        <lane id=":B3_23_0" index="0" speed="9.32" length="4.87" shape="92.80,298.40 96.65,299.35 97.28,300.00"/>
    </edge>
    <edge id=":B3_31" function="internal">
        <lane id=":B3_31_0" index="0" speed="9.32" length="14.76" shape="97.28,300.00 99.40,302.20 101.05,306.95 101.60,313.60"/>
    </edge>
    <edge id=":B4_0" function="internal">
        <lane id=":B4_0_0" index="0" speed="6.51" length="9.03" shape="98.40,407.20 98.05,404.75 97.00,403.00 95.25,401.95 92.80,401.60"/>
    </edge>
    <edge id=":B4_1" function="internal">
        <lane id=":B4_1_0" index="0" speed="13.89" length="14.40" shape="98.40,407.20 98.40,392.80"/>
    </edge>
    <edge id=":B4_2" function="internal">
        <lane id=":B4_2_0" index="0" speed="8.00" length="5.93" shape="98.40,407.20 98.95,403.35 100.00,401.60"/>
    </edge>
    <edge id=":B4_9" function="internal">
        <lane id=":B4_9_0" index="0" speed="8.00" length="8.26" shape="100.00,401.60 100.60,400.60 103.35,398.95 107.20,398.40"/>
    </edge>
    <edge id=":B4_3" function="internal">
        <lane id=":B4_3_0" index="0" speed="6.51" length="9.03" shape="101.60,392.80 101.95,395.25 103.00,397.00 104.75,398.05 107.20,398.40"/>
    </edge>
    <edge id=":B4_4" function="internal">
        <lane id=":B4_4_0" index="0" speed="13.89" length="14.40" shape="101.60,392.80 101.60,407.20"/>
    </edge>
    <edge id=":B4_5" function="internal">
        <lane id=":B4_5_0" index="0" speed="8.00" length="5.93" shape="101.60,392.80 101.05,396.65 100.00,398.40"/>
    </edge>
    <edge id=":B4_10" function="internal">
        <lane id=":B4_10_0" index="0" speed="8.00" length="8.26" shape="100.00,398.40 99.40,399.40 96.65,401.05 92.80,401.60"/>
    </edge>
    <edge id=":B4_6" function="internal">
        <lane id=":B4_6_0" index="0" speed="6.51" length="9.03" shape="92.80,398.40 95.25,398.05 97.00,397.00 98.05,395.25 98.40,392.80"/>
    </edge>
    <edge id=":B4_7" function="internal">
        <lane id=":B4_7_0" index="0" speed="13.89" length="14.40" shape="92.80,398.40 107.20,398.40"/>
    </edge>
    <edge id=":B4_8" function="internal">
        <lane id=":B4_8_0" index="0" speed="8.00" length="14.19" shape="92.80,398.40 96.65,398.95 99.40,400.60 101.05,403.35 101.60,407.20"/>
    </edge>
    <edge id=":B5_0" function="internal">
        <lane id=":B5_0_0" index="0" speed="6.51" length="9.03" shape="98.40,507.20 98.05,504.75 97.00,503.00 95.25,501.95 92.80,501.60"/>
    </edge>
    <edge id=":B5_1" function="internal">
        <lane id=":B5_1_0" index="0" speed="13.89" length="14.40" shape="98.40,507.20 98.40,492.80"/>
    </edge>
    <edge id=":B5_2" function="internal">
        <lane id=":B5_2_0" index="0" speed="8.00" length="5.93" shape="98.40,507.20 98.95,503.35 100.00,501.60"/>
    </edge>
    <edge id=":B5_12" function="internal">
        <lane id=":B5_12_0" index="0" speed="8.00" length="8.26" shape="100.00,501.60 100.60,500.60 103.35,498.95 107.20,498.40"/>
    </edge>
    <edge id=":B5_3" function="internal">
        <lane id=":B5_3_0" index="0" speed="6.51" length="9.03" shape="107.20,501.60 104.75,501.95 103.00,503.00 101.95,504.75 101.60,507.20"/>
    </edge>
    <edge id=":B5_4" function="internal">
        <lane id=":B5_4_0" index="0" speed="13.89" length="14.40" shape="107.20,501.60 92.80,501.60"/>
    </edge>
    <edge id=":B5_5" function="internal">
        <lane id=":B5_5_0" index="0" speed="8.00" length="5.93" shape="107.20,501.60 103.35,501.05 101.60,500.00"/>
    </edge>
    <edge id=":B5_13" function="internal">
        <lane id=":B5_13_0" index="0" speed="8.00" length="8.26" shape="101.60,500.00 100.60,499.40 98.95,496.65 98.40,492.80"/>
    </edge>
    <edge id=":B5_6" function="internal">
        <lane id=":B5_6_0" index="0" speed="6.51" length="9.03" shape="101.60,492.80 101.95,495.25 103.00,497.00 104.75,498.05 107.20,498.40"/>
    </edge>
    <edge id=":B5_7" function="internal">
        <lane id=":B5_7_0" index="0" speed="13.89" length="14.40" shape="101.60,492.80 101.60,507.20"/>
    </edge>
    <edge id=":B5_8" function="internal">
        <lane id=":B5_8_0" index="0" speed="8.00" length="5.93" shape="101.60,492.80 101.05,496.65 100.00,498.40"/>
    </edge>
    <edge id=":B5_14" function="internal">
        <lane id=":B5_14_0" index="0" speed="8.00" length="8.26" shape="100.00,498.40 99.40,499.40 96.65,501.05 92.80,501.60"/>
    </edge>
    <edge id=":B5_9" function="internal">
        <lane id=":B5_9_0" index="0" speed="6.51" length="9.03" shape="92.80,498.40 95.25,498.05 97.00,497.00 98.05,495.25 98.40,492.80"/>
    </edge>
    <edge id=":B5_10" function="internal">
        <lane id=":B5_10_0" index="0" speed="13.89" length="14.40" shape="92.80,498.40 107.20,498.40"/>
    </edge>
    <edge id=":B5_11" function="internal">
        <lane id=":B5_11_0" index="0" speed="8.00" length="5.93" shape="92.80,498.40 96.65,498.95 98.40,500.00"/>
    </edge>
    <edge id=":B5_15" function="internal">
        <lane id=":B5_15_0" index="0" speed="8.00" length="8.26" shape="98.40,500.00 99.40,500.60 101.05,503.35 101.60,507.20"/>
    </edge>
    <edge id=":C1_0" function="internal">
        <lane id=":C1_0_0" index="0" speed="6.51" length="9.03" shape="207.20,101.60 204.75,101.95 203.00,103.00 201.95,104.75 201.60,107.20"/>
    </edge>
    <edge id=":C1_1" function="internal">
        <lane id=":C1_1_0" index="0" speed="13.89" length="14.40" shape="207.20,101.60 192.80,101.60"/>
    </edge>
    <edge id=":C1_2" function="internal">
        <lane id=":C1_2_0" index="0" speed="8.00" length="5.93" shape="207.20,101.60 203.35,101.05 201.60,100.00"/>
    </edge>
    <edge id=":C1_9" function="internal">
        <lane id=":C1_9_0" index="0" speed="8.00" length="8.26" shape="201.60,100.00 200.60,99.40 198.95,96.65 198.40,92.80"/>
    </edge>
    <edge id=":C1_3" function="internal">
        <lane id=":C1_3_0" index="0" speed="6.51" length="9.03" shape="201.60,92.80 201.95,95.25 203.00,97.00 204.75,98.05 207.20,98.40"/>
    </edge>
    <edge id=":C1_4" function="internal">
        <lane id=":C1_4_0" index="0" speed="13.89" length="14.40" shape="201.60,92.80 201.60,107.20"/>
    </edge>
    <edge id=":C1_5" function="internal">
        <lane id=":C1_5_0" index="0" speed="8.00" length="14.19" shape="201.60,92.80 201.05,96.65 199.40,99.40 196.65,101.05 192.80,101.60"/>
    </edge>
    <edge id=":C1_6" function="internal">
        <lane id=":C1_6_0" index="0" speed="6.51" length="9.03" shape="192.80,98.40 195.25,98.05 197.00,97.00 198.05,95.25 198.40,92.80"/>
    </edge>
    <edge id=":C1_7" function="internal">
        <lane id=":C1_7_0" index="0" speed="13.89" length="14.40" shape="192.80,98.40 207.20,98.40"/>
    </edge>
    <edge id=":C1_8" function="internal">
        <lane id=":C1_8_0" index="0" speed="8.00" length="5.93" shape="192.80,98.40 196.65,98.95 198.40,100.00"/>
    </edge>
    <edge id=":C1_10" function="internal">
        <lane id=":C1_10_0" index="0" speed="8.00" length="8.26" shape="198.40,100.00 199.40,100.60 201.05,103.35 201.60,107.20"/>
    </edge>
    <edge id=":C2_0" function="internal">
        <lane id=":C2_0_0" index="0" speed="6.51" length="9.03" shape="207.20,201.60 204.75,201.95 203.00,203.00 201.95,204.75 201.60,207.20"/>
    </edge>
    <edge id=":C2_1" function="internal">
        <lane id=":C2_1_0" index="0" speed="13.89" length="11.20" shape="207.20,201.60 196.00,201.60"/>
    </edge>
    <edge id=":C2_2" function="internal">
        <lane id=":C2_2_0" index="0" speed="13.89" length="11.20" shape="201.60,196.00 201.60,207.20"/>
    </edge>
    <edge id=":C2_3" function="internal">
        <lane id=":C2_3_0" index="0" speed="6.51" length="4.28" shape="201.60,196.00 201.25,198.45 200.32,200.00"/>
    </edge>
    <edge id=":C2_4" function="internal">
        <lane id=":C2_4_0" index="0" speed="6.51" length="4.75" shape="200.32,200.00 200.20,200.20 198.45,201.25 196.00,201.60"/>
    </edge>
    <edge id=":C3_0" function="internal">
        <lane id=":C3_0_0" index="0" speed="6.51" length="9.03" shape="207.20,308.00 204.75,308.35 203.00,309.40 201.95,311.15 201.60,313.60"/>
    </edge>
    <edge id=":C3_1" function="internal">
        <lane id=":C3_1_0" index="0" speed="13.89" length="11.20" shape="207.20,308.00 196.00,308.00"/>
        <lane id=":C3_1_1" index="1" speed="13.89" length="11.20" shape="207.20,304.80 196.00,304.80"/>
        <lane id=":C3_1_2" index="2" speed="13.89" length="11.20" shape="207.20,301.60 196.00,301.60"/>
    </edge>
    <edge id=":C3_4" function="internal">
        <lane id=":C3_4_0" index="0" speed="6.51" length="9.03" shape="201.60,286.40 201.95,288.85 203.00,290.60 204.75,291.65 207.20,292.00"/>
    </edge>
    <edge id=":C3_5" function="internal">
        <lane id=":C3_5_0" index="0" speed="8.83" length="17.50" shape="201.60,286.40 201.25,293.05 200.20,297.80 198.45,300.65 196.00,301.60"/>
    </edge>
    <edge id=":C3_6" function="internal">
        <lane id=":C3_6_0" index="0" speed="9.51" length="20.48" shape="201.60,286.40 201.25,294.45 200.20,300.20 198.45,303.65 196.00,304.80"/>
    </edge>
    <edge id=":C3_7" function="internal">
        <lane id=":C3_7_0" index="0" speed="13.89" length="27.20" shape="201.60,286.40 201.60,313.60"/>
    </edge>
    <edge id=":C3_8" function="internal">
        <lane id=":C3_8_0" index="0" speed="10.16" length="23.50" shape="201.60,286.40 201.25,295.85 200.20,302.60 198.45,306.65 196.00,308.00"/>
    </edge>
    <edge id=":C3_9" function="internal">
        <lane id=":C3_9_0" index="0" speed="7.33" length="11.73" shape="201.60,286.40 201.95,290.25 203.00,293.00 204.75,294.65 207.20,295.20"/>
    </edge>
    <edge id=":C3_10" function="internal">
        <lane id=":C3_10_0" index="0" speed="8.10" length="14.57" shape="201.60,286.40 201.95,291.65 203.00,295.40 204.75,297.65 207.20,298.40"/>
    </edge>
    <edge id=":C3_11" function="internal">
        <lane id=":C3_11_0" index="0" speed="13.89" length="11.20" shape="196.00,292.00 207.20,292.00"/>
        <lane id=":C3_11_1" index="1" speed="13.89" length="11.20" shape="196.00,295.20 207.20,295.20"/>
        <lane id=":C3_11_2" index="2" speed="13.89" length="11.20" shape="196.00,298.40 207.20,298.40"/>
    </edge>
    <edge id=":C3_14" function="internal">
        <lane id=":C3_14_0" index="0" speed="8.83" length="3.39" shape="196.00,298.40 198.45,299.35 198.85,300.00"/>
    </edge>
    <edge id=":C3_15" function="internal">
        <lane id=":C3_15_0" index="0" speed="8.83" length="14.11" shape="198.85,300.00 200.20,302.20 201.25,306.95 201.60,313.60"/>
    </edge>
    <edge id=":C4_0" function="internal">
        <lane id=":C4_0_0" index="0" speed="6.51" length="9.03" shape="201.60,392.80 201.95,395.25 203.00,397.00 204.75,398.05 207.20,398.40"/>
    </edge>
    <edge id=":C4_1" function="internal">
        <lane id=":C4_1_0" index="0" speed="13.89" length="11.20" shape="201.60,392.80 201.60,404.00"/>
    </edge>
    <edge id=":C4_2" function="internal">
        <lane id=":C4_2_0" index="0" speed="13.89" length="11.20" shape="196.00,398.40 207.20,398.40"/>
    </edge>
    <edge id=":C4_3" function="internal">
        <lane id=":C4_3_0" index="0" speed="6.51" length="4.28" shape="196.00,398.40 198.45,398.75 200.00,399.68"/>
    </edge>
    <edge id=":C4_4" function="internal">
        <lane id=":C4_4_0" index="0" speed="6.51" length="4.75" shape="200.00,399.68 200.20,399.80 201.25,401.55 201.60,404.00"/>
    </edge>
    <edge id=":C5_0" function="internal">
        <lane id=":C5_0_0" index="0" speed="6.51" length="9.03" shape="198.40,507.20 198.05,504.75 197.00,503.00 195.25,501.95 192.80,501.60"/>
    </edge>
    <edge id=":C5_1" function="internal">
        <lane id=":C5_1_0" index="0" speed="8.00" length="14.19" shape="198.40,507.20 198.95,503.35 200.60,500.60 203.35,498.95 207.20,498.40"/>
    </edge>
    <edge id=":C5_2" function="internal">
        <lane id=":C5_2_0" index="0" speed="6.51" length="9.03" shape="207.20,501.60 204.75,501.95 203.00,503.00 201.95,504.75 201.60,507.20"/>
    </edge>
    <edge id=":C5_3" function="internal">
        <lane id=":C5_3_0" index="0" speed="13.89" length="14.40" shape="207.20,501.60 192.80,501.60"/>
    </edge>
    <edge id=":C5_4" function="internal">
        <lane id=":C5_4_0" index="0" speed="6.51" length="9.03" shape="201.60,492.80 201.95,495.25 203.00,497.00 204.75,498.05 207.20,498.40"/>
    </edge>
    <edge id=":C5_5" function="internal">
        <lane id=":C5_5_0" index="0" speed="13.89" length="14.40" shape="201.60,492.80 201.60,507.20"/>
    </edge>
    <edge id=":C5_6" function="internal">
        <lane id=":C5_6_0" index="0" speed="8.00" length="10.18" shape="201.60,492.80 201.05,496.65 199.40,499.40 196.75,500.99"/>
    </edge>
    <edge id=":C5_9" function="internal">
        <lane id=":C5_9_0" index="0" speed="8.00" length="4.01" shape="196.75,500.99 196.65,501.05 192.80,501.60"/>
    </edge>
    <edge id=":C5_7" function="internal">
        <lane id=":C5_7_0" index="0" speed="13.89" length="14.40" shape="192.80,498.40 207.20,498.40"/>
    </edge>
    <edge id=":C5_8" function="internal">
        <lane id=":C5_8_0" index="0" speed="8.00" length="5.93" shape="192.80,498.40 196.65,498.95 198.40,500.00"/>
    </edge>
    <edge id=":C5_10" function="internal">
        <lane id=":C5_10_0" index="0" speed="8.00" length="8.26" shape="198.40,500.00 199.40,500.60 201.05,503.35 201.60,507.20"/>
    </edge>
    <edge id=":D1_0" function="internal">
        <lane id=":D1_0_0" index="0" speed="6.51" length="9.03" shape="295.20,107.20 294.85,104.75 293.80,103.00 292.05,101.95 289.60,101.60"/>
    </edge>
    <edge id=":D1_1" function="internal">
        <lane id=":D1_1_0" index="0" speed="13.89" length="14.40" shape="298.40,107.20 298.40,92.80"/>
    </edge>
    <edge id=":D1_2" function="internal">
        <lane id=":D1_2_0" index="0" speed="8.67" length="5.26" shape="298.40,107.20 299.15,103.35 300.00,102.31"/>
    </edge>
    <edge id=":D1_15" function="internal">
        <lane id=":D1_15_0" index="0" speed="8.67" length="11.59" shape="300.00,102.31 301.40,100.60 305.15,98.95 310.40,98.40"/>
    </edge>
    <edge id=":D1_3" function="internal">
        <lane id=":D1_3_0" index="0" speed="6.51" length="9.03" shape="310.40,101.60 307.95,101.95 306.20,103.00 305.15,104.75 304.80,107.20"/>
    </edge>
    <edge id=":D1_4" function="internal">
        <lane id=":D1_4_0" index="0" speed="7.33" length="11.73" shape="310.40,101.60 306.55,101.95 303.80,103.00 302.15,104.75 301.60,107.20"/>
    </edge>
    <edge id=":D1_5" function="internal">
        <lane id=":D1_5_0" index="0" speed="13.89" length="20.80" shape="310.40,101.60 289.60,101.60"/>
    </edge>
    <edge id=":D1_6" function="internal">
        <lane id=":D1_6_0" index="0" speed="8.45" length="7.89" shape="310.40,101.60 306.43,100.84 303.01,99.09"/>
    </edge>
    <edge id=":D1_16" function="internal">
        <lane id=":D1_16_0" index="0" speed="8.45" length="8.05" shape="303.01,99.09 302.54,98.85 299.58,96.03 298.40,92.80"/>
    </edge>
    <edge id=":D1_7" function="internal">
        <lane id=":D1_7_0" index="0" speed="7.33" length="11.73" shape="301.60,92.80 302.15,95.25 303.80,97.00 306.55,98.05 310.40,98.40"/>
    </edge>
    <edge id=":D1_8" function="internal">
        <lane id=":D1_8_0" index="0" speed="13.89" length="14.62" shape="301.60,92.80 302.10,96.12 303.20,99.11 304.30,102.54 304.80,107.20"/>
        <lane id=":D1_8_1" index="1" speed="13.89" length="14.62" shape="301.60,92.80 301.60,107.20"/>
    </edge>
    <edge id=":D1_10" function="internal">
        <lane id=":D1_10_0" index="0" speed="8.67" length="5.26" shape="301.60,92.80 300.85,96.65 300.00,97.69"/>
    </edge>
    <edge id=":D1_17" function="internal">
        <lane id=":D1_17_0" index="0" speed="8.67" length="11.59" shape="300.00,97.69 298.60,99.40 294.85,101.05 289.60,101.60"/>
    </edge>
    <edge id=":D1_11" function="internal">
        <lane id=":D1_11_0" index="0" speed="7.33" length="11.73" shape="289.60,98.40 293.45,98.05 296.20,97.00 297.85,95.25 298.40,92.80"/>
    </edge>
    <edge id=":D1_12" function="internal">
        <lane id=":D1_12_0" index="0" speed="13.89" length="20.80" shape="289.60,98.40 310.40,98.40"/>
    </edge>
    <edge id=":D1_13" function="internal">
        <lane id=":D1_13_0" index="0" speed="9.09" length="9.87" shape="289.60,98.40 294.44,99.16 299.05,101.01"/>
    </edge>
    <edge id=":D1_14" function="internal">
        <lane id=":D1_14_0" index="0" speed="8.67" length="7.89" shape="289.60,98.40 294.85,98.95 297.24,100.00"/>
    </edge>
    <edge id=":D1_18" function="internal">
        <lane id=":D1_18_0" index="0" speed="9.09" length="8.73" shape="299.05,101.01 299.40,101.15 303.25,103.97 304.80,107.20"/>
    </edge>
    <edge id=":D1_19" function="internal">
        <lane id=":D1_19_0" index="0" speed="8.67" length="8.97" shape="297.24,100.00 298.60,100.60 300.85,103.35 301.60,107.20"/>
    </edge>
    <edge id=":D2_0" function="internal">
        <lane id=":D2_0_0" index="0" speed="6.51" length="9.03" shape="292.00,207.20 291.65,204.75 290.60,203.00 288.85,201.95 286.40,201.60"/>
    </edge>
    <edge id=":D2_1" function="internal">
        <lane id=":D2_1_0" index="0" speed="13.89" length="11.20" shape="295.20,207.20 295.20,196.00"/>
        <lane id=":D2_1_1" index="1" speed="13.89" length="11.20" shape="298.40,207.20 298.40,196.00"/>
    </edge>
    <edge id=":D2_3" function="internal">
        <lane id=":D2_3_0" index="0" speed="13.89" length="11.40" shape="304.80,196.00 305.30,199.39 306.40,201.60 307.50,203.81 308.00,207.20"/>
        <lane id=":D2_3_1" index="1" speed="13.89" length="11.40" shape="304.80,196.00 304.80,207.20"/>
        <lane id=":D2_3_2" index="2" speed="13.89" length="11.40" shape="301.60,196.00 301.60,207.20"/>
    </edge>
    <edge id=":D2_6" function="internal">
        <lane id=":D2_6_0" index="0" speed="8.83" length="3.39" shape="301.60,196.00 300.65,198.45 300.00,198.85"/>
    </edge>
    <edge id=":D2_7" function="internal">
        <lane id=":D2_7_0" index="0" speed="8.83" length="14.11" shape="300.00,198.85 297.80,200.20 293.05,201.25 286.40,201.60"/>
    </edge>
    <edge id=":D3_0" function="internal">
        <lane id=":D3_0_0" index="0" speed="6.51" length="9.03" shape="292.00,313.60 291.65,311.15 290.60,309.40 288.85,308.35 286.40,308.00"/>
    </edge>
    <edge id=":D3_1" function="internal">
        <lane id=":D3_1_0" index="0" speed="7.33" length="11.73" shape="292.00,313.60 291.65,309.75 290.60,307.00 288.85,305.35 286.40,304.80"/>
    </edge>
    <edge id=":D3_2" function="internal">
        <lane id=":D3_2_0" index="0" speed="8.10" length="14.57" shape="292.00,313.60 291.65,308.35 290.60,304.60 288.85,302.35 286.40,301.60"/>
    </edge>
    <edge id=":D3_3" function="internal">